<?xml version="1.0" encoding="UTF-8"?>

<!-- generated on 2025-01-16 13:55:38.041321 by osmWebWizard.py v1_21_0+0000-d7b3b481c43
<configuration>
    <net-file value="F:\Program Files\sumo\tools\2025-01-16-13-55-32\osm.net.xml.gz"/>
    <output-trip-file value="F:\Program Files\sumo\tools\2025-01-16-13-55-32\osm.passenger.trips.xml"/>
    <route-file value="F:\Program Files\sumo\tools\2025-01-16-13-55-32\osm.passenger.rou.xml"/>
    <prefix value="veh"/>
    <trip-attributes value="departLane=&quot;best&quot;"/>
    <fringe-start-attributes value="departSpeed=&quot;max&quot;"/>
    <vehicle-class value="passenger"/>
    <lanes value="True"/>
    <fringe-factor value="5"/>
    <allow-fringe.min-length value="1000.0"/>
    <via-edge-types value="highway.motorway,highway.motorway_link,highway.trunk_link,highway.primary_link,highway.secondary_link,highway.tertiary_link"/>
    <min-distance value="300.0"/>
    <min-distance.fringe value="10.0"/>
    <remove-loops value="True"/>
    <validate value="True"/>
    <insertion-density value="360.0"/>
</configuration>
-->

<!-- generated on 2025-01-16 13:55:37 by Eclipse SUMO duarouter Version 1.21.0
<duarouterConfiguration xmlns:xsi="http://www.w3.org/2001/XMLSchema-instance" xsi:noNamespaceSchemaLocation="http://sumo.dlr.de/xsd/duarouterConfiguration.xsd">

    <input>
        <net-file value="F:\Program Files\sumo\tools\2025-01-16-13-55-32\osm.net.xml.gz"/>
        <route-files value="F:\Program Files\sumo\tools\2025-01-16-13-55-32\osm.passenger.trips.xml"/>
    </input>

    <output>
        <output-file value="F:\Program Files\sumo\tools\2025-01-16-13-55-32\osm.passenger.trips.xml.tmp"/>
        <alternatives-output value="NUL"/>
        <write-trips value="true"/>
    </output>

    <processing>
        <remove-loops value="true"/>
    </processing>

    <time>
        <begin value="0.0"/>
        <end value="3600.0"/>
    </time>

    <report>
        <no-warnings value="true"/>
        <ignore-errors value="true"/>
        <no-step-log value="true"/>
    </report>

</duarouterConfiguration>
-->

<routes xmlns:xsi="http://www.w3.org/2001/XMLSchema-instance" xsi:noNamespaceSchemaLocation="http://sumo.dlr.de/xsd/routes_file.xsd">
    <vType id="veh_passenger" vClass="passenger"/>
    <trip id="veh0" type="veh_passenger" depart="0.00" departLane="best" from="-289314036#3" to="-158232267#0"/>
    <trip id="veh1" type="veh_passenger" depart="2.57" departLane="best" departSpeed="max" from="-6394741#4" to="-39877395#0"/>
    <trip id="veh2" type="veh_passenger" depart="5.14" departLane="best" departSpeed="max" from="6373869#0" to="158232267#5"/>
    <trip id="veh3" type="veh_passenger" depart="7.71" departLane="best" from="1237393725" to="-158232267#0"/>
    <trip id="veh4" type="veh_passenger" depart="10.29" departLane="best" from="-158232267#3" to="-289314036#0"/>
    <trip id="veh5" type="veh_passenger" depart="12.86" departLane="best" departSpeed="max" from="6373869#0" to="-1156157793#0"/>
    <trip id="veh6" type="veh_passenger" depart="15.43" departLane="best" departSpeed="max" from="6373869#0" to="158232267#5"/>
    <trip id="veh7" type="veh_passenger" depart="18.00" departLane="best" departSpeed="max" from="-6394741#4" to="-289314036#0"/>
    <trip id="veh8" type="veh_passenger" depart="20.57" departLane="best" departSpeed="max" from="6394741#0" to="158232267#3"/>
    <trip id="veh9" type="veh_passenger" depart="23.14" departLane="best" departSpeed="max" from="6373869#0" to="39877395#3"/>
    <trip id="veh10" type="veh_passenger" depart="25.72" departLane="best" departSpeed="max" from="6394741#0" to="-1156157793#0"/>
    <trip id="veh11" type="veh_passenger" depart="28.29" departLane="best" departSpeed="max" from="-6373869#5" to="-39877395#0"/>
    <trip id="veh12" type="veh_passenger" depart="30.86" departLane="best" departSpeed="max" from="-158232267#5" to="-39877395#0"/>
    <trip id="veh13" type="veh_passenger" depart="33.43" departLane="best" departSpeed="max" from="-158232267#5" to="-39877395#0"/>
    <trip id="veh14" type="veh_passenger" depart="36.00" departLane="best" from="-9407841#10" to="289314036#3"/>
    <trip id="veh15" type="veh_passenger" depart="38.57" departLane="best" departSpeed="max" from="39877395#0" to="158232267#3"/>
    <trip id="veh16" type="veh_passenger" depart="41.14" departLane="best" departSpeed="max" from="289314036#0" to="158232267#5"/>
    <trip id="veh17" type="veh_passenger" depart="43.72" departLane="best" departSpeed="max" from="-6373869#5" to="-158232267#0"/>
    <trip id="veh18" type="veh_passenger" depart="46.29" departLane="best" departSpeed="max" from="-6394741#4" to="-39877395#0"/>
    <trip id="veh19" type="veh_passenger" depart="48.86" departLane="best" departSpeed="max" from="39877395#0" to="6373869#4"/>
    <trip id="veh20" type="veh_passenger" depart="51.43" departLane="best" from="-6394741#3" to="-39877395#0"/>
    <trip id="veh21" type="veh_passenger" depart="54.00" departLane="best" departSpeed="max" from="289314036#0" to="6394741#4"/>
    <trip id="veh22" type="veh_passenger" depart="56.57" departLane="best" departSpeed="max" from="-158232267#5" to="-158232267#0"/>
    <trip id="veh23" type="veh_passenger" depart="59.14" departLane="best" departSpeed="max" from="-158232267#5" to="-6394741#0"/>
    <trip id="veh24" type="veh_passenger" depart="61.72" departLane="best" departSpeed="max" from="158232267#0" to="-289314036#0"/>
    <trip id="veh25" type="veh_passenger" depart="64.29" departLane="best" departSpeed="max" from="6394741#0" to="6394741#4"/>
    <trip id="veh26" type="veh_passenger" depart="66.86" departLane="best" from="1156157793#0" to="-6373869#0"/>
    <trip id="veh27" type="veh_passenger" depart="69.43" departLane="best" departSpeed="max" from="6394741#0" to="6373869#5"/>
    <trip id="veh28" type="veh_passenger" depart="72.00" departLane="best" departSpeed="max" from="-6394741#4" to="-158232267#0"/>
    <trip id="veh29" type="veh_passenger" depart="74.57" departLane="best" departSpeed="max" from="-158232267#5" to="6394741#3"/>
    <trip id="veh30" type="veh_passenger" depart="77.15" departLane="best" departSpeed="max" from="-6373869#5" to="-6373869#0"/>
    <trip id="veh31" type="veh_passenger" depart="79.72" departLane="best" departSpeed="max" from="-158232267#5" to="-39877395#0"/>
    <trip id="veh32" type="veh_passenger" depart="82.29" departLane="best" departSpeed="max" from="-6373869#5" to="-39877395#0"/>
    <trip id="veh33" type="veh_passenger" depart="84.86" departLane="best" departSpeed="max" from="-6373869#5" to="-289314036#0"/>
    <trip id="veh34" type="veh_passenger" depart="87.43" departLane="best" departSpeed="max" from="158232267#0" to="6373869#5"/>
    <trip id="veh35" type="veh_passenger" depart="90.00" departLane="best" departSpeed="max" from="-158232267#5" to="-6394741#0"/>
    <trip id="veh36" type="veh_passenger" depart="92.57" departLane="best" from="1237393725" to="-6394741#0"/>
    <trip id="veh37" type="veh_passenger" depart="95.15" departLane="best" departSpeed="max" from="-6373869#5" to="-6394741#0"/>
    <trip id="veh38" type="veh_passenger" depart="97.72" departLane="best" from="1237393725" to="-39877395#0"/>
    <trip id="veh39" type="veh_passenger" depart="100.29" departLane="best" departSpeed="max" from="158232267#0" to="6394741#4"/>
    <trip id="veh40" type="veh_passenger" depart="102.86" departLane="best" departSpeed="max" from="289314036#0" to="-158232267#0"/>
    <trip id="veh41" type="veh_passenger" depart="105.43" departLane="best" departSpeed="max" from="158232267#0" to="289314036#3"/>
    <trip id="veh42" type="veh_passenger" depart="108.00" departLane="best" departSpeed="max" from="289314036#0" to="289314036#3"/>
    <trip id="veh43" type="veh_passenger" depart="110.57" departLane="best" from="-6373869#3" to="-39877395#0"/>
    <trip id="veh44" type="veh_passenger" depart="113.15" departLane="best" departSpeed="max" from="158232267#0" to="6394741#3"/>
    <trip id="veh45" type="veh_passenger" depart="115.72" departLane="best" departSpeed="max" from="-158232267#5" to="-289314036#0"/>
    <trip id="veh46" type="veh_passenger" depart="118.29" departLane="best" departSpeed="max" from="289314036#0" to="158232267#5"/>
    <trip id="veh47" type="veh_passenger" depart="120.86" departLane="best" departSpeed="max" from="289314036#0" to="158232267#4"/>
    <trip id="veh48" type="veh_passenger" depart="123.43" departLane="best" from="-158232267#3" to="6394741#4"/>
    <trip id="veh49" type="veh_passenger" depart="126.00" departLane="best" departSpeed="max" from="-158232267#5" to="-6394741#0"/>
    <trip id="veh50" type="veh_passenger" depart="128.58" departLane="best" departSpeed="max" from="-158232267#5" to="289314036#3"/>
    <trip id="veh51" type="veh_passenger" depart="131.15" departLane="best" departSpeed="max" from="6394741#0" to="6394741#4"/>
    <trip id="veh52" type="veh_passenger" depart="133.72" departLane="best" from="-9407841#10" to="-289314036#0"/>
    <trip id="veh53" type="veh_passenger" depart="136.29" departLane="best" departSpeed="max" from="289314036#0" to="9407841#7"/>
    <trip id="veh54" type="veh_passenger" depart="138.86" departLane="best" departSpeed="max" from="39877395#0" to="-1156157793#0"/>
    <trip id="veh55" type="veh_passenger" depart="141.43" departLane="best" from="-289314036#3" to="158232267#4"/>
    <trip id="veh56" type="veh_passenger" depart="144.00" departLane="best" departSpeed="max" from="39877395#0" to="289314036#3"/>
    <trip id="veh57" type="veh_passenger" depart="146.58" departLane="best" from="-289314036#3" to="-39877395#0"/>
    <trip id="veh58" type="veh_passenger" depart="149.15" departLane="best" departSpeed="max" from="158232267#0" to="6394741#4"/>
    <trip id="veh59" type="veh_passenger" depart="151.72" departLane="best" from="1237393725" to="-39877395#0"/>
    <trip id="veh60" type="veh_passenger" depart="154.29" departLane="best" from="-289314036#3" to="-39877395#0"/>
    <trip id="veh61" type="veh_passenger" depart="156.86" departLane="best" from="-6373869#3" to="-289314036#0"/>
    <trip id="veh62" type="veh_passenger" depart="159.43" departLane="best" departSpeed="max" from="6373869#0" to="6394741#4"/>
    <trip id="veh63" type="veh_passenger" depart="162.00" departLane="best" departSpeed="max" from="6373869#0" to="6394741#4"/>
    <trip id="veh64" type="veh_passenger" depart="164.58" departLane="best" departSpeed="max" from="6373869#0" to="6394741#4"/>
    <trip id="veh65" type="veh_passenger" depart="167.15" departLane="best" departSpeed="max" from="6373869#0" to="6394741#4"/>
    <trip id="veh66" type="veh_passenger" depart="169.72" departLane="best" departSpeed="max" from="6394741#0" to="6394741#3"/>
    <trip id="veh67" type="veh_passenger" depart="172.29" departLane="best" from="-158232267#3" to="-289314036#0"/>
    <trip id="veh68" type="veh_passenger" depart="174.86" departLane="best" departSpeed="max" from="39877395#0" to="6373869#4"/>
    <trip id="veh69" type="veh_passenger" depart="177.43" departLane="best" from="9407841#1" to="158232267#4"/>
    <trip id="veh70" type="veh_passenger" depart="180.01" departLane="best" departSpeed="max" from="-158232267#5" to="-6394741#0"/>
    <trip id="veh71" type="veh_passenger" depart="182.58" departLane="best" departSpeed="max" from="6373869#0" to="158232267#5"/>
    <trip id="veh72" type="veh_passenger" depart="185.15" departLane="best" departSpeed="max" from="-6394741#4" to="-6394741#0"/>
    <trip id="veh73" type="veh_passenger" depart="187.72" departLane="best" from="-289314036#3" to="-6394741#0"/>
    <trip id="veh74" type="veh_passenger" depart="190.29" departLane="best" from="9407841#1" to="158232267#5"/>
    <trip id="veh75" type="veh_passenger" depart="192.86" departLane="best" departSpeed="max" from="6394741#0" to="158232267#4"/>
    <trip id="veh76" type="veh_passenger" depart="195.43" departLane="best" from="1156157793#0" to="-39877395#0"/>
    <trip id="veh77" type="veh_passenger" depart="198.01" departLane="best" departSpeed="max" from="158232267#0" to="289314036#3"/>
    <trip id="veh78" type="veh_passenger" depart="200.58" departLane="best" departSpeed="max" from="158232267#0" to="6394741#4"/>
    <trip id="veh79" type="veh_passenger" depart="203.15" departLane="best" departSpeed="max" from="-158232267#5" to="-9407841#1"/>
    <trip id="veh80" type="veh_passenger" depart="205.72" departLane="best" departSpeed="max" from="-6373869#5" to="-158232267#0"/>
    <trip id="veh81" type="veh_passenger" depart="208.29" departLane="best" departSpeed="max" from="-6373869#5" to="-6394741#0"/>
    <trip id="veh82" type="veh_passenger" depart="210.86" departLane="best" departSpeed="max" from="39877395#0" to="-1156157793#0"/>
    <trip id="veh83" type="veh_passenger" depart="213.44" departLane="best" departSpeed="max" from="6373869#0" to="6373869#5"/>
    <trip id="veh84" type="veh_passenger" depart="216.01" departLane="best" departSpeed="max" from="-158232267#5" to="-6394741#0"/>
    <trip id="veh85" type="veh_passenger" depart="218.58" departLane="best" departSpeed="max" from="158232267#0" to="6373869#5"/>
    <trip id="veh86" type="veh_passenger" depart="221.15" departLane="best" departSpeed="max" from="6394741#0" to="158232267#4"/>
    <trip id="veh87" type="veh_passenger" depart="223.72" departLane="best" departSpeed="max" from="6394741#0" to="6373869#3"/>
    <trip id="veh88" type="veh_passenger" depart="226.29" departLane="best" from="-289314036#3" to="-39877395#0"/>
    <trip id="veh89" type="veh_passenger" depart="228.86" departLane="best" departSpeed="max" from="-158232267#5" to="-39877395#0"/>
    <trip id="veh90" type="veh_passenger" depart="231.44" departLane="best" departSpeed="max" from="-6394741#4" to="-6373869#0"/>
    <trip id="veh91" type="veh_passenger" depart="234.01" departLane="best" from="-158232267#4" to="-289314036#0"/>
    <trip id="veh92" type="veh_passenger" depart="236.58" departLane="best" from="1156157793#0" to="289314036#3"/>
    <trip id="veh93" type="veh_passenger" depart="239.15" departLane="best" departSpeed="max" from="289314036#0" to="158232267#5"/>
    <trip id="veh94" type="veh_passenger" depart="241.72" departLane="best" departSpeed="max" from="6394741#0" to="6373869#4"/>
    <trip id="veh95" type="veh_passenger" depart="244.29" departLane="best" departSpeed="max" from="6394741#0" to="9407841#10"/>
    <trip id="veh96" type="veh_passenger" depart="246.86" departLane="best" departSpeed="max" from="-6373869#5" to="-39877395#0"/>
    <trip id="veh97" type="veh_passenger" depart="249.44" departLane="best" from="1237393725" to="-158232267#0"/>
    <trip id="veh98" type="veh_passenger" depart="252.01" departLane="best" from="-9407841#7" to="-289314036#0"/>
    <trip id="veh99" type="veh_passenger" depart="254.58" departLane="best" departSpeed="max" from="158232267#0" to="-289314036#0"/>
    <trip id="veh100" type="veh_passenger" depart="257.15" departLane="best" departSpeed="max" from="289314036#0" to="-158232267#0"/>
    <trip id="veh101" type="veh_passenger" depart="259.72" departLane="best" from="-289314036#3" to="-6394741#0"/>
    <trip id="veh102" type="veh_passenger" depart="262.29" departLane="best" departSpeed="max" from="-6373869#5" to="-6373869#0"/>
    <trip id="veh103" type="veh_passenger" depart="264.87" departLane="best" departSpeed="max" from="6373869#0" to="6373869#5"/>
    <trip id="veh104" type="veh_passenger" depart="267.44" departLane="best" from="-6394741#3" to="-158232267#0"/>
    <trip id="veh105" type="veh_passenger" depart="270.01" departLane="best" departSpeed="max" from="39877395#0" to="6373869#5"/>
    <trip id="veh106" type="veh_passenger" depart="272.58" departLane="best" departSpeed="max" from="39877395#0" to="6373869#4"/>
    <trip id="veh107" type="veh_passenger" depart="275.15" departLane="best" from="-158232267#3" to="-289314036#0"/>
    <trip id="veh108" type="veh_passenger" depart="277.72" departLane="best" from="-289314036#3" to="158232267#5"/>
    <trip id="veh109" type="veh_passenger" depart="280.29" departLane="best" departSpeed="max" from="39877395#0" to="6373869#5"/>
    <trip id="veh110" type="veh_passenger" depart="282.87" departLane="best" departSpeed="max" from="6373869#0" to="158232267#4"/>
    <trip id="veh111" type="veh_passenger" depart="285.44" departLane="best" departSpeed="max" from="-158232267#5" to="-158232267#0"/>
    <trip id="veh112" type="veh_passenger" depart="288.01" departLane="best" departSpeed="max" from="39877395#0" to="158232267#5"/>
    <trip id="veh113" type="veh_passenger" depart="290.58" departLane="best" departSpeed="max" from="6394741#0" to="158232267#3"/>
    <trip id="veh114" type="veh_passenger" depart="293.15" departLane="best" from="1237393725" to="-6373869#0"/>
    <trip id="veh115" type="veh_passenger" depart="295.72" departLane="best" departSpeed="max" from="6394741#0" to="6373869#5"/>
    <trip id="veh116" type="veh_passenger" depart="298.29" departLane="best" from="-158232267#4" to="-6394741#0"/>
    <trip id="veh117" type="veh_passenger" depart="300.87" departLane="best" from="-6373869#4" to="-158232267#0"/>
    <trip id="veh118" type="veh_passenger" depart="303.44" departLane="best" departSpeed="max" from="158232267#0" to="158232267#4"/>
    <trip id="veh119" type="veh_passenger" depart="306.01" departLane="best" departSpeed="max" from="158232267#0" to="6373869#4"/>
    <trip id="veh120" type="veh_passenger" depart="308.58" departLane="best" departSpeed="max" from="39877395#0" to="158232267#5"/>
    <trip id="veh121" type="veh_passenger" depart="311.15" departLane="best" departSpeed="max" from="158232267#0" to="6373869#5"/>
    <trip id="veh122" type="veh_passenger" depart="313.72" departLane="best" departSpeed="max" from="-158232267#5" to="-39877395#0"/>
    <trip id="veh123" type="veh_passenger" depart="316.30" departLane="best" from="-158232267#3" to="-6394741#0"/>
    <trip id="veh124" type="veh_passenger" depart="318.87" departLane="best" departSpeed="max" from="158232267#0" to="39877395#3"/>
    <trip id="veh125" type="veh_passenger" depart="321.44" departLane="best" departSpeed="max" from="-6394741#4" to="158232267#3"/>
    <trip id="veh126" type="veh_passenger" depart="324.01" departLane="best" departSpeed="max" from="-6373869#5" to="-39877395#0"/>
    <trip id="veh127" type="veh_passenger" depart="326.58" departLane="best" from="-158232267#4" to="-39877395#0"/>
    <trip id="veh128" type="veh_passenger" depart="329.15" departLane="best" departSpeed="max" from="6394741#0" to="-1156157793#0"/>
    <trip id="veh129" type="veh_passenger" depart="331.72" departLane="best" departSpeed="max" from="-6373869#5" to="-158232267#0"/>
    <trip id="veh130" type="veh_passenger" depart="334.30" departLane="best" departSpeed="max" from="-158232267#5" to="-289314036#0"/>
    <trip id="veh131" type="veh_passenger" depart="336.87" departLane="best" departSpeed="max" from="6373869#0" to="158232267#3"/>
    <trip id="veh132" type="veh_passenger" depart="339.44" departLane="best" from="-158232267#3" to="-6394741#0"/>
    <trip id="veh133" type="veh_passenger" depart="342.01" departLane="best" departSpeed="max" from="158232267#0" to="6394741#4"/>
    <trip id="veh134" type="veh_passenger" depart="344.58" departLane="best" departSpeed="max" from="289314036#0" to="158232267#4"/>
    <trip id="veh135" type="veh_passenger" depart="347.15" departLane="best" departSpeed="max" from="-6373869#5" to="-158232267#0"/>
    <trip id="veh136" type="veh_passenger" depart="349.72" departLane="best" from="1156157793#0" to="-6394741#0"/>
    <trip id="veh137" type="veh_passenger" depart="352.30" departLane="best" departSpeed="max" from="39877395#0" to="6394741#4"/>
    <trip id="veh138" type="veh_passenger" depart="354.87" departLane="best" departSpeed="max" from="6373869#0" to="158232267#5"/>
    <trip id="veh139" type="veh_passenger" depart="357.44" departLane="best" departSpeed="max" from="39877395#0" to="6394741#4"/>
    <trip id="veh140" type="veh_passenger" depart="360.01" departLane="best" departSpeed="max" from="39877395#0" to="6394741#4"/>
    <trip id="veh141" type="veh_passenger" depart="362.58" departLane="best" from="-6373869#4" to="-6373869#0"/>
    <trip id="veh142" type="veh_passenger" depart="365.15" departLane="best" departSpeed="max" from="6373869#0" to="-1156157793#0"/>
    <trip id="veh143" type="veh_passenger" depart="367.73" departLane="best" departSpeed="max" from="39877395#0" to="158232267#5"/>
    <trip id="veh144" type="veh_passenger" depart="370.30" departLane="best" from="-158232267#4" to="-6394741#0"/>
    <trip id="veh145" type="veh_passenger" depart="372.87" departLane="best" departSpeed="max" from="-6394741#4" to="-39877395#0"/>
    <trip id="veh146" type="veh_passenger" depart="375.44" departLane="best" departSpeed="max" from="158232267#0" to="158232267#5"/>
    <trip id="veh147" type="veh_passenger" depart="378.01" departLane="best" departSpeed="max" from="289314036#0" to="158232267#5"/>
    <trip id="veh148" type="veh_passenger" depart="380.58" departLane="best" departSpeed="max" from="39877395#0" to="6394741#3"/>
    <trip id="veh149" type="veh_passenger" depart="383.15" departLane="best" from="-158232267#4" to="-6394741#0"/>
    <trip id="veh150" type="veh_passenger" depart="385.73" departLane="best" departSpeed="max" from="-6373869#5" to="-6373869#0"/>
    <trip id="veh151" type="veh_passenger" depart="388.30" departLane="best" departSpeed="max" from="6373869#0" to="158232267#5"/>
    <trip id="veh152" type="veh_passenger" depart="390.87" departLane="best" departSpeed="max" from="289314036#0" to="6394741#4"/>
    <trip id="veh153" type="veh_passenger" depart="393.44" departLane="best" departSpeed="max" from="158232267#0" to="158232267#5"/>
    <trip id="veh154" type="veh_passenger" depart="396.01" departLane="best" departSpeed="max" from="289314036#0" to="-158232267#0"/>
    <trip id="veh155" type="veh_passenger" depart="398.58" departLane="best" departSpeed="max" from="158232267#0" to="158232267#4"/>
    <trip id="veh156" type="veh_passenger" depart="401.16" departLane="best" departSpeed="max" from="39877395#0" to="-9407841#1"/>
    <trip id="veh157" type="veh_passenger" depart="403.73" departLane="best" departSpeed="max" from="6394741#0" to="6394741#4"/>
    <trip id="veh158" type="veh_passenger" depart="406.30" departLane="best" departSpeed="max" from="158232267#0" to="6373869#5"/>
    <trip id="veh159" type="veh_passenger" depart="408.87" departLane="best" departSpeed="max" from="-6394741#4" to="-6373869#0"/>
    <trip id="veh160" type="veh_passenger" depart="411.44" departLane="best" departSpeed="max" from="289314036#0" to="9407841#7"/>
    <trip id="veh161" type="veh_passenger" depart="414.01" departLane="best" departSpeed="max" from="158232267#0" to="-289314036#0"/>
    <trip id="veh162" type="veh_passenger" depart="416.58" departLane="best" from="-158232267#4" to="-6373869#0"/>
    <trip id="veh163" type="veh_passenger" depart="419.16" departLane="best" departSpeed="max" from="6373869#0" to="289314036#3"/>
    <trip id="veh164" type="veh_passenger" depart="421.73" departLane="best" departSpeed="max" from="39877395#0" to="6373869#5"/>
    <trip id="veh165" type="veh_passenger" depart="424.30" departLane="best" from="-158232267#4" to="-9407841#1"/>
    <trip id="veh166" type="veh_passenger" depart="426.87" departLane="best" departSpeed="max" from="289314036#0" to="6394741#4"/>
    <trip id="veh167" type="veh_passenger" depart="429.44" departLane="best" from="-158232267#3" to="-6394741#0"/>
    <trip id="veh168" type="veh_passenger" depart="432.01" departLane="best" departSpeed="max" from="39877395#0" to="6394741#3"/>
    <trip id="veh169" type="veh_passenger" depart="434.58" departLane="best" departSpeed="max" from="6394741#0" to="6394741#3"/>
    <trip id="veh170" type="veh_passenger" depart="437.16" departLane="best" departSpeed="max" from="39877395#0" to="6373869#4"/>
    <trip id="veh171" type="veh_passenger" depart="439.73" departLane="best" departSpeed="max" from="39877395#0" to="6394741#4"/>
    <trip id="veh172" type="veh_passenger" depart="442.30" departLane="best" departSpeed="max" from="-6394741#4" to="-6373869#0"/>
    <trip id="veh173" type="veh_passenger" depart="444.87" departLane="best" departSpeed="max" from="289314036#0" to="6373869#5"/>
    <trip id="veh174" type="veh_passenger" depart="447.44" departLane="best" from="-6373869#4" to="-158232267#0"/>
    <trip id="veh175" type="veh_passenger" depart="450.01" departLane="best" departSpeed="max" from="6394741#0" to="158232267#4"/>
    <trip id="veh176" type="veh_passenger" depart="452.59" departLane="best" from="-6373869#3" to="-6394741#0"/>
    <trip id="veh177" type="veh_passenger" depart="455.16" departLane="best" from="-6394741#3" to="-39877395#0"/>
    <trip id="veh178" type="veh_passenger" depart="457.73" departLane="best" departSpeed="max" from="6394741#0" to="158232267#5"/>
    <trip id="veh179" type="veh_passenger" depart="460.30" departLane="best" from="-6373869#4" to="-6394741#0"/>
    <trip id="veh180" type="veh_passenger" depart="462.87" departLane="best" departSpeed="max" from="289314036#0" to="-1156157793#0"/>
    <trip id="veh181" type="veh_passenger" depart="465.44" departLane="best" from="9407841#4" to="158232267#5"/>
    <trip id="veh182" type="veh_passenger" depart="468.01" departLane="best" departSpeed="max" from="39877395#0" to="6373869#3"/>
    <trip id="veh183" type="veh_passenger" depart="470.59" departLane="best" departSpeed="max" from="158232267#0" to="6394741#4"/>
    <trip id="veh184" type="veh_passenger" depart="473.16" departLane="best" from="-289314036#3" to="158232267#4"/>
    <trip id="veh185" type="veh_passenger" depart="475.73" departLane="best" departSpeed="max" from="39877395#0" to="39877395#3"/>
    <trip id="veh186" type="veh_passenger" depart="478.30" departLane="best" departSpeed="max" from="39877395#0" to="6373869#5"/>
    <trip id="veh187" type="veh_passenger" depart="480.87" departLane="best" departSpeed="max" from="-6373869#5" to="-289314036#0"/>
    <trip id="veh188" type="veh_passenger" depart="483.44" departLane="best" from="-158232267#3" to="6394741#4"/>
    <trip id="veh189" type="veh_passenger" depart="486.01" departLane="best" from="-6373869#4" to="-39877395#0"/>
    <trip id="veh190" type="veh_passenger" depart="488.59" departLane="best" departSpeed="max" from="6373869#0" to="6373869#3"/>
    <trip id="veh191" type="veh_passenger" depart="491.16" departLane="best" from="-9407841#10" to="-289314036#0"/>
    <trip id="veh192" type="veh_passenger" depart="493.73" departLane="best" departSpeed="max" from="158232267#0" to="158232267#5"/>
    <trip id="veh193" type="veh_passenger" depart="496.30" departLane="best" departSpeed="max" from="-158232267#5" to="-39877395#0"/>
    <trip id="veh194" type="veh_passenger" depart="498.87" departLane="best" departSpeed="max" from="289314036#0" to="6394741#4"/>
    <trip id="veh195" type="veh_passenger" depart="501.44" departLane="best" departSpeed="max" from="-6373869#5" to="-158232267#0"/>
    <trip id="veh196" type="veh_passenger" depart="504.02" departLane="best" departSpeed="max" from="-6394741#4" to="-6394741#0"/>
    <trip id="veh197" type="veh_passenger" depart="506.59" departLane="best" from="-289314036#3" to="-6394741#0"/>
    <trip id="veh198" type="veh_passenger" depart="509.16" departLane="best" departSpeed="max" from="39877395#0" to="6373869#3"/>
    <trip id="veh199" type="veh_passenger" depart="511.73" departLane="best" from="9407841#1" to="-158232267#0"/>
    <trip id="veh200" type="veh_passenger" depart="514.30" departLane="best" from="-9407841#10" to="-6394741#0"/>
    <trip id="veh201" type="veh_passenger" depart="516.87" departLane="best" departSpeed="max" from="39877395#0" to="158232267#5"/>
    <trip id="veh202" type="veh_passenger" depart="519.44" departLane="best" departSpeed="max" from="289314036#0" to="-158232267#0"/>
    <trip id="veh203" type="veh_passenger" depart="522.02" departLane="best" from="-6373869#3" to="-289314036#0"/>
    <trip id="veh204" type="veh_passenger" depart="524.59" departLane="best" from="-6394741#3" to="-289314036#0"/>
    <trip id="veh205" type="veh_passenger" depart="527.16" departLane="best" departSpeed="max" from="-6373869#5" to="-6373869#0"/>
    <trip id="veh206" type="veh_passenger" depart="529.73" departLane="best" departSpeed="max" from="-6373869#5" to="-158232267#0"/>
    <trip id="veh207" type="veh_passenger" depart="532.30" departLane="best" departSpeed="max" from="-158232267#5" to="-9407841#1"/>
    <trip id="veh208" type="veh_passenger" depart="534.87" departLane="best" from="9407841#1" to="-158232267#0"/>
    <trip id="veh209" type="veh_passenger" depart="537.45" departLane="best" departSpeed="max" from="6373869#0" to="6394741#4"/>
    <trip id="veh210" type="veh_passenger" depart="540.02" departLane="best" from="-158232267#3" to="-6394741#0"/>
    <trip id="veh211" type="veh_passenger" depart="542.59" departLane="best" departSpeed="max" from="158232267#0" to="6373869#4"/>
    <trip id="veh212" type="veh_passenger" depart="545.16" departLane="best" departSpeed="max" from="-158232267#5" to="-39877395#0"/>
    <trip id="veh213" type="veh_passenger" depart="547.73" departLane="best" from="-158232267#3" to="-6394741#0"/>
    <trip id="veh214" type="veh_passenger" depart="550.30" departLane="best" departSpeed="max" from="289314036#0" to="158232267#3"/>
    <trip id="veh215" type="veh_passenger" depart="552.87" departLane="best" departSpeed="max" from="39877395#0" to="6394741#3"/>
    <trip id="veh216" type="veh_passenger" depart="555.45" departLane="best" departSpeed="max" from="39877395#0" to="6373869#5"/>
    <trip id="veh217" type="veh_passenger" depart="558.02" departLane="best" departSpeed="max" from="-6394741#4" to="-6394741#0"/>
    <trip id="veh218" type="veh_passenger" depart="560.59" departLane="best" from="-9407841#10" to="-289314036#0"/>