<?xml version="1.0" encoding="UTF-8"?>

<!-- generated on 2025-01-16 13:39:45 by Eclipse SUMO netconvert Version 1.21.0
<netconvertConfiguration xmlns:xsi="http://www.w3.org/2001/XMLSchema-instance" xsi:noNamespaceSchemaLocation="http://sumo.dlr.de/xsd/netconvertConfiguration.xsd">

    <input>
        <type-files value="${SUMO_HOME}\data\typemap\osmNetconvert.typ.xml"/>
        <osm-files value="osm_bbox.osm.xml.gz"/>
    </input>

    <output>
        <output-file value="osm.net.xml.gz"/>
        <output.street-names value="true"/>
        <output.original-names value="true"/>
    </output>

    <projection>
        <proj.utm value="true"/>
    </projection>

    <processing>
        <geometry.remove value="true"/>
        <roundabouts.guess value="true"/>
    </processing>

    <tls_building>
        <tls.discard-simple value="true"/>
        <tls.join value="true"/>
        <tls.guess-signals value="true"/>
        <tls.default-type value="actuated"/>
    </tls_building>

    <ramp_guessing>
        <ramps.guess value="true"/>
    </ramp_guessing>

    <junctions>
        <junctions.join value="true"/>
        <junctions.corner-detail value="5"/>
    </junctions>

</netconvertConfiguration>
-->

<net version="1.20" junctionCornerDetail="5" limitTurnSpeed="5.50" xmlns:xsi="http://www.w3.org/2001/XMLSchema-instance" xsi:noNamespaceSchemaLocation="http://sumo.dlr.de/xsd/net_file.xsd">

    <location netOffset="-548379.03,-5281706.87" convBoundary="0.00,0.00,795.37,394.35" origBoundary="-122.355303,47.686906,-122.344716,47.690427" projParameter="+proj=utm +zone=10 +ellps=WGS84 +datum=WGS84 +units=m +no_defs"/>

    <type id="highway.cycleway" priority="1" numLanes="1" speed="5.56" allow="bicycle" oneway="0" width="2.00"/>
    <type id="highway.footway" priority="1" numLanes="1" speed="2.78" allow="pedestrian" oneway="1" width="2.00"/>
    <type id="highway.residential" priority="3" numLanes="1" speed="13.89" disallow="tram rail_urban rail rail_electric rail_fast ship container cable_car subway aircraft wheelchair scooter drone" oneway="0"/>
    <type id="highway.service" priority="1" numLanes="1" speed="5.56" allow="pedestrian delivery bicycle" oneway="0"/>
    <type id="highway.tertiary" priority="10" numLanes="1" speed="22.22" disallow="tram rail_urban rail rail_electric rail_fast ship container cable_car subway aircraft wheelchair scooter drone" oneway="0"/>

    <edge id=":11413395336_0" function="internal">
        <lane id=":11413395336_0_0" index="0" allow="pedestrian delivery bicycle" speed="3.65" length="4.67" shape="767.80,154.42 768.61,153.24 769.42,152.85 770.21,153.26 771.00,154.47"/>
    </edge>
    <edge id=":12234207282_0" function="internal">
        <lane id=":12234207282_0_0" index="0" allow="pedestrian delivery bicycle" speed="5.56" length="5.04" shape="43.40,312.88 43.32,317.92"/>
    </edge>
    <edge id=":12234207282_1" function="internal">
        <lane id=":12234207282_1_0" index="0" allow="pedestrian delivery bicycle" speed="3.65" length="1.44" shape="43.40,312.88 42.58,314.06"/>
    </edge>
    <edge id=":12234207282_4" function="internal">
        <lane id=":12234207282_4_0" index="0" allow="pedestrian delivery bicycle" speed="3.65" length="3.23" shape="42.58,314.06 41.77,314.45 40.98,314.04 40.20,312.83"/>
    </edge>
    <edge id=":12234207282_2" function="internal">
        <lane id=":12234207282_2_0" index="0" allow="pedestrian delivery bicycle" speed="5.56" length="5.04" shape="40.12,317.87 40.20,312.83"/>
    </edge>
    <edge id=":12234207282_3" function="internal">
        <lane id=":12234207282_3_0" index="0" allow="pedestrian delivery bicycle" speed="3.65" length="1.44" shape="40.12,317.87 40.94,316.68"/>
    </edge>
    <edge id=":12234207282_5" function="internal">
        <lane id=":12234207282_5_0" index="0" allow="pedestrian delivery bicycle" speed="3.65" length="3.23" shape="40.94,316.68 41.74,316.29 42.54,316.71 43.32,317.92"/>
    </edge>
    <edge id=":12234207283_0" function="internal">
        <lane id=":12234207283_0_0" index="0" allow="pedestrian delivery bicycle" speed="5.56" length="5.09" shape="23.81,312.69 23.69,317.78"/>
    </edge>
    <edge id=":12234207283_1" function="internal">
        <lane id=":12234207283_1_0" index="0" allow="pedestrian delivery bicycle" speed="3.65" length="1.44" shape="23.81,312.69 22.98,313.87"/>
    </edge>
    <edge id=":12234207283_4" function="internal">
        <lane id=":12234207283_4_0" index="0" allow="pedestrian delivery bicycle" speed="3.65" length="3.23" shape="22.98,313.87 22.17,314.25 21.38,313.84 20.61,312.62"/>
    </edge>
    <edge id=":12234207283_2" function="internal">
        <lane id=":12234207283_2_0" index="0" allow="pedestrian delivery bicycle" speed="5.56" length="5.09" shape="20.49,317.71 20.61,312.62"/>
    </edge>
    <edge id=":12234207283_3" function="internal">
        <lane id=":12234207283_3_0" index="0" allow="pedestrian delivery bicycle" speed="3.65" length="1.44" shape="20.49,317.71 21.32,316.52"/>
    </edge>
    <edge id=":12234207283_5" function="internal">
        <lane id=":12234207283_5_0" index="0" allow="pedestrian delivery bicycle" speed="3.65" length="3.23" shape="21.32,316.52 22.13,316.14 22.92,316.56 23.69,317.78"/>
    </edge>
    <edge id=":12234207291_0" function="internal">
        <lane id=":12234207291_0_0" index="0" allow="pedestrian delivery bicycle" speed="5.56" length="5.04" shape="13.41,175.88 8.37,175.77"/>
    </edge>
    <edge id=":12234207291_1" function="internal">
        <lane id=":12234207291_1_0" index="0" allow="pedestrian delivery bicycle" speed="3.65" length="1.44" shape="13.41,175.88 12.23,175.05"/>
    </edge>
    <edge id=":12234207291_4" function="internal">
        <lane id=":12234207291_4_0" index="0" allow="pedestrian delivery bicycle" speed="3.65" length="3.23" shape="12.23,175.05 11.85,174.25 12.27,173.46 13.48,172.68"/>
    </edge>
    <edge id=":12234207291_2" function="internal">
        <lane id=":12234207291_2_0" index="0" allow="pedestrian delivery bicycle" speed="5.56" length="5.04" shape="8.45,172.57 13.48,172.68"/>
    </edge>
    <edge id=":12234207291_3" function="internal">
        <lane id=":12234207291_3_0" index="0" allow="pedestrian delivery bicycle" speed="3.65" length="1.44" shape="8.45,172.57 9.63,173.40"/>
    </edge>
    <edge id=":12234207291_5" function="internal">
        <lane id=":12234207291_5_0" index="0" allow="pedestrian delivery bicycle" speed="3.65" length="3.23" shape="9.63,173.40 10.01,174.21 9.59,175.00 8.37,175.77"/>
    </edge>
    <edge id=":12234207292_0" function="internal">
        <lane id=":12234207292_0_0" index="0" allow="pedestrian delivery bicycle" speed="5.56" length="5.07" shape="13.14,195.82 8.06,195.80"/>
    </edge>
    <edge id=":12234207292_1" function="internal">
        <lane id=":12234207292_1_0" index="0" allow="pedestrian delivery bicycle" speed="3.65" length="1.44" shape="13.14,195.82 11.94,195.01"/>
    </edge>
    <edge id=":12234207292_4" function="internal">
        <lane id=":12234207292_4_0" index="0" allow="pedestrian delivery bicycle" speed="3.65" length="3.23" shape="11.94,195.01 11.55,194.21 11.95,193.41 13.15,192.62"/>
    </edge>
    <edge id=":12234207292_2" function="internal">
        <lane id=":12234207292_2_0" index="0" allow="pedestrian delivery bicycle" speed="5.56" length="5.08" shape="8.08,192.60 13.15,192.62"/>
    </edge>
    <edge id=":12234207292_3" function="internal">
        <lane id=":12234207292_3_0" index="0" allow="pedestrian delivery bicycle" speed="3.65" length="1.44" shape="8.08,192.60 9.27,193.40"/>
    </edge>
    <edge id=":12234207292_5" function="internal">
        <lane id=":12234207292_5_0" index="0" allow="pedestrian delivery bicycle" speed="3.65" length="3.23" shape="9.27,193.40 9.67,194.20 9.27,195.00 8.06,195.80"/>
    </edge>
    <edge id=":12234207294_0" function="internal">
        <lane id=":12234207294_0_0" index="0" allow="pedestrian delivery bicycle" speed="5.56" length="5.08" shape="14.92,18.83 9.85,18.75"/>
    </edge>
    <edge id=":12234207294_1" function="internal">
        <lane id=":12234207294_1_0" index="0" allow="pedestrian delivery bicycle" speed="3.65" length="1.44" shape="14.92,18.83 13.74,18.01"/>
    </edge>
    <edge id=":12234207294_4" function="internal">
        <lane id=":12234207294_4_0" index="0" allow="pedestrian delivery bicycle" speed="3.65" length="3.23" shape="13.74,18.01 13.35,17.20 13.77,16.41 14.98,15.63"/>
    </edge>
    <edge id=":12234207294_2" function="internal">
        <lane id=":12234207294_2_0" index="0" allow="pedestrian delivery bicycle" speed="5.56" length="5.08" shape="9.90,15.55 14.98,15.63"/>
    </edge>
    <edge id=":12234207294_3" function="internal">
        <lane id=":12234207294_3_0" index="0" allow="pedestrian delivery bicycle" speed="3.65" length="1.44" shape="9.90,15.55 11.09,16.37"/>
    </edge>
    <edge id=":12234207294_5" function="internal">
        <lane id=":12234207294_5_0" index="0" allow="pedestrian delivery bicycle" speed="3.65" length="3.23" shape="11.09,16.37 11.47,17.17 11.06,17.97 9.85,18.75"/>
    </edge>
    <edge id=":12234374521_0" function="internal">
        <lane id=":12234374521_0_0" index="0" disallow="tram rail_urban rail rail_electric rail_fast ship container cable_car subway aircraft wheelchair scooter drone" speed="5.74" length="1.52" shape="198.11,320.54 196.75,319.87"/>
    </edge>
    <edge id=":12234374522_0" function="internal">
        <lane id=":12234374522_0_0" index="0" disallow="tram rail_urban rail rail_electric rail_fast ship container cable_car subway aircraft wheelchair scooter drone" speed="8.94" length="0.73" shape="206.71,319.89 206.90,319.99 207.00,320.10 207.05,320.25 207.08,320.46"/>
    </edge>
    <edge id=":12234374523_0" function="internal">
        <lane id=":12234374523_0_0" index="0" allow="pedestrian delivery bicycle" speed="5.56" length="5.05" shape="195.82,380.59 190.77,380.57"/>
    </edge>
    <edge id=":12234374523_1" function="internal">
        <lane id=":12234374523_1_0" index="0" allow="pedestrian delivery bicycle" speed="3.65" length="1.44" shape="195.82,380.59 194.62,379.79"/>
    </edge>
    <edge id=":12234374523_4" function="internal">
        <lane id=":12234374523_4_0" index="0" allow="pedestrian delivery bicycle" speed="3.65" length="3.23" shape="194.62,379.79 194.23,378.98 194.63,378.19 195.83,377.39"/>
    </edge>
    <edge id=":12234374523_2" function="internal">
        <lane id=":12234374523_2_0" index="0" allow="pedestrian delivery bicycle" speed="5.56" length="5.12" shape="190.80,377.33 192.22,377.74 193.25,377.71 194.31,377.51 195.83,377.39"/>
    </edge>
    <edge id=":12234374523_3" function="internal">
        <lane id=":12234374523_3_0" index="0" allow="pedestrian delivery bicycle" speed="3.85" length="1.46" shape="190.80,377.33 192.00,378.15"/>
    </edge>
    <edge id=":12234374523_5" function="internal">
        <lane id=":12234374523_5_0" index="0" allow="pedestrian delivery bicycle" speed="3.85" length="3.27" shape="192.00,378.15 192.40,378.96 191.99,379.77 190.77,380.57"/>
    </edge>
    <edge id=":12234374526_0" function="internal">
        <lane id=":12234374526_0_0" index="0" allow="pedestrian delivery bicycle" speed="5.56" length="5.00" shape="300.16,234.60 300.12,239.61"/>
    </edge>
    <edge id=":12234374526_1" function="internal">
        <lane id=":12234374526_1_0" index="0" allow="pedestrian delivery bicycle" speed="3.65" length="1.44" shape="300.16,234.60 299.35,235.80"/>
    </edge>
    <edge id=":12234374526_4" function="internal">
        <lane id=":12234374526_4_0" index="0" allow="pedestrian delivery bicycle" speed="3.65" length="3.23" shape="299.35,235.80 298.55,236.19 297.75,235.78 296.96,234.58"/>
    </edge>
    <edge id=":12234374526_2" function="internal">
        <lane id=":12234374526_2_0" index="0" allow="pedestrian delivery bicycle" speed="5.56" length="5.00" shape="296.92,239.58 296.96,234.58"/>
    </edge>
    <edge id=":12234374526_3" function="internal">
        <lane id=":12234374526_3_0" index="0" allow="pedestrian delivery bicycle" speed="3.65" length="1.44" shape="296.92,239.58 297.73,238.39"/>
    </edge>
    <edge id=":12234374526_5" function="internal">
        <lane id=":12234374526_5_0" index="0" allow="pedestrian delivery bicycle" speed="3.65" length="3.23" shape="297.73,238.39 298.53,237.99 299.33,238.40 300.12,239.61"/>
    </edge>
    <edge id=":12243195488_0" function="internal">
        <lane id=":12243195488_0_0" index="0" allow="pedestrian delivery bicycle" speed="5.56" length="5.09" shape="400.73,61.71 395.63,61.60"/>
    </edge>
    <edge id=":12243195488_1" function="internal">
        <lane id=":12243195488_1_0" index="0" allow="pedestrian delivery bicycle" speed="3.65" length="1.44" shape="400.73,61.71 399.54,60.89"/>
    </edge>
    <edge id=":12243195488_4" function="internal">
        <lane id=":12243195488_4_0" index="0" allow="pedestrian delivery bicycle" speed="3.65" length="3.23" shape="399.54,60.89 399.16,60.08 399.58,59.29 400.80,58.51"/>
    </edge>
    <edge id=":12243195488_2" function="internal">
        <lane id=":12243195488_2_0" index="0" allow="pedestrian delivery bicycle" speed="5.56" length="5.09" shape="395.71,58.40 400.80,58.51"/>
    </edge>
    <edge id=":12243195488_3" function="internal">
        <lane id=":12243195488_3_0" index="0" allow="pedestrian delivery bicycle" speed="3.65" length="1.44" shape="395.71,58.40 396.89,59.23"/>
    </edge>
    <edge id=":12243195488_5" function="internal">
        <lane id=":12243195488_5_0" index="0" allow="pedestrian delivery bicycle" speed="3.65" length="3.23" shape="396.89,59.23 397.27,60.04 396.85,60.83 395.63,61.60"/>
    </edge>
    <edge id=":12243636589_0" function="internal">
        <lane id=":12243636589_0_0" index="0" allow="pedestrian delivery bicycle" speed="5.56" length="5.00" shape="794.23,12.71 794.12,17.70"/>
    </edge>
    <edge id=":12243636589_1" function="internal">
        <lane id=":12243636589_1_0" index="0" allow="pedestrian delivery bicycle" speed="3.65" length="1.44" shape="794.23,12.71 793.41,13.89"/>
    </edge>
    <edge id=":12243636589_4" function="internal">
        <lane id=":12243636589_4_0" index="0" allow="pedestrian delivery bicycle" speed="3.65" length="3.23" shape="793.41,13.89 792.60,14.27 791.81,13.85 791.04,12.63"/>
    </edge>
    <edge id=":12243636589_2" function="internal">
        <lane id=":12243636589_2_0" index="0" allow="pedestrian delivery bicycle" speed="5.56" length="5.00" shape="790.92,17.63 791.04,12.63"/>
    </edge>
    <edge id=":12243636589_3" function="internal">
        <lane id=":12243636589_3_0" index="0" allow="pedestrian delivery bicycle" speed="3.65" length="1.44" shape="790.92,17.63 791.75,16.45"/>
    </edge>
    <edge id=":12243636589_5" function="internal">
        <lane id=":12243636589_5_0" index="0" allow="pedestrian delivery bicycle" speed="3.65" length="3.23" shape="791.75,16.45 792.56,16.07 793.35,16.49 794.12,17.70"/>
    </edge>
    <edge id=":12243695217_0" function="internal">
        <lane id=":12243695217_0_0" index="0" allow="pedestrian delivery bicycle" speed="5.56" length="5.00" shape="766.53,301.89 766.56,296.89"/>
    </edge>
    <edge id=":12243695222_0" function="internal">
        <lane id=":12243695222_0_0" index="0" allow="pedestrian delivery bicycle" speed="5.56" length="5.02" shape="785.35,292.98 785.26,298.00"/>
    </edge>
    <edge id=":12243695222_1" function="internal">
        <lane id=":12243695222_1_0" index="0" allow="pedestrian delivery bicycle" speed="3.65" length="1.44" shape="785.35,292.98 784.53,294.16"/>
    </edge>
    <edge id=":12243695222_4" function="internal">
        <lane id=":12243695222_4_0" index="0" allow="pedestrian delivery bicycle" speed="3.65" length="3.23" shape="784.53,294.16 783.72,294.55 782.93,294.13 782.15,292.92"/>
    </edge>
    <edge id=":12243695222_2" function="internal">
        <lane id=":12243695222_2_0" index="0" allow="pedestrian delivery bicycle" speed="5.56" length="5.02" shape="782.06,297.94 782.15,292.92"/>
    </edge>
    <edge id=":12243695222_3" function="internal">
        <lane id=":12243695222_3_0" index="0" allow="pedestrian delivery bicycle" speed="3.65" length="1.44" shape="782.06,297.94 782.88,296.75"/>
    </edge>
    <edge id=":12243695222_5" function="internal">
        <lane id=":12243695222_5_0" index="0" allow="pedestrian delivery bicycle" speed="3.65" length="3.23" shape="782.88,296.75 783.69,296.37 784.48,296.78 785.26,298.00"/>
    </edge>
    <edge id=":3830094474_0" function="internal">
        <lane id=":3830094474_0_0" index="0" allow="pedestrian delivery bicycle" speed="3.65" length="4.67" shape="48.83,208.72 49.64,207.53 50.45,207.14 51.24,207.55 52.03,208.77"/>
    </edge>
    <edge id=":3830094477_0" function="internal">
        <lane id=":3830094477_0_0" index="0" allow="pedestrian delivery bicycle" speed="3.65" length="4.67" shape="53.25,279.79 52.45,280.99 51.65,281.39 50.85,280.99 50.05,279.78"/>
    </edge>
    <edge id=":4414012023_0" function="internal">
        <lane id=":4414012023_0_0" index="0" allow="pedestrian delivery bicycle" speed="3.65" length="4.67" shape="57.33,71.61 58.12,70.40 58.91,69.99 59.72,70.38 60.53,71.57"/>
    </edge>
    <edge id=":4414012024_0" function="internal">
        <lane id=":4414012024_0_0" index="0" disallow="tram rail_urban rail rail_electric rail_fast ship container cable_car subway aircraft wheelchair scooter drone" speed="8.94" length="9.39" shape="63.58,82.96 54.19,82.87"/>
    </edge>
    <edge id=":4414012024_1" function="internal">
        <lane id=":4414012024_1_0" index="0" allow="pedestrian delivery bicycle" speed="6.78" length="3.33" shape="63.58,82.96 60.83,82.56 60.36,82.28"/>
    </edge>
    <edge id=":4414012024_7" function="internal">
        <lane id=":4414012024_7_0" index="0" allow="pedestrian delivery bicycle" speed="6.78" length="6.56" shape="60.36,82.28 58.88,81.42 57.71,79.54 57.35,76.93"/>
    </edge>
    <edge id=":4414012024_2" function="internal">
        <lane id=":4414012024_2_0" index="0" allow="pedestrian delivery bicycle" speed="4.93" length="4.73" shape="60.55,76.96 60.73,78.17 61.30,79.04 62.26,79.57 63.62,79.76"/>
    </edge>
    <edge id=":4414012024_3" function="internal">
        <lane id=":4414012024_3_0" index="0" allow="pedestrian delivery bicycle" speed="6.78" length="9.89" shape="60.55,76.96 60.13,79.56 58.93,81.42 56.95,82.52 54.19,82.87"/>
    </edge>
    <edge id=":4414012024_4" function="internal">
        <lane id=":4414012024_4_0" index="0" allow="pedestrian delivery bicycle" speed="3.65" length="4.67" shape="60.55,76.96 59.73,78.15 58.93,78.54 58.13,78.13 57.35,76.93"/>
    </edge>
    <edge id=":4414012024_5" function="internal">
        <lane id=":4414012024_5_0" index="0" allow="pedestrian delivery bicycle" speed="4.93" length="4.73" shape="54.22,79.67 55.58,79.50 56.55,78.99 57.14,78.14 57.35,76.93"/>
    </edge>
    <edge id=":4414012024_6" function="internal">
        <lane id=":4414012024_6_0" index="0" disallow="tram rail_urban rail rail_electric rail_fast ship container cable_car subway aircraft wheelchair scooter drone" speed="8.94" length="9.40" shape="54.22,79.67 63.62,79.76"/>
    </edge>
    <edge id=":4551277420_0" function="internal">
        <lane id=":4551277420_0_0" index="0" allow="pedestrian delivery bicycle" speed="3.65" length="4.67" shape="793.93,26.07 793.10,27.25 792.29,27.63 791.50,27.21 790.73,26.00"/>
    </edge>
    <edge id=":4551277421_0" function="internal">
        <lane id=":4551277421_0_0" index="0" allow="pedestrian delivery bicycle" speed="6.08" length="7.80" shape="789.52,6.87 791.63,7.20 793.13,8.13 794.00,9.65 794.26,11.78"/>
    </edge>
    <edge id=":4551277421_1" function="internal">
        <lane id=":4551277421_1_0" index="0" disallow="tram rail_urban rail rail_electric rail_fast ship container cable_car subway aircraft wheelchair scooter drone" speed="3.65" length="4.67" shape="789.52,6.87 790.71,7.68 791.10,8.49 790.69,9.28 789.48,10.07"/>
    </edge>
    <edge id=":4551277421_2" function="internal">
        <lane id=":4551277421_2_0" index="0" allow="pedestrian delivery bicycle" speed="3.90" length="2.60" shape="791.06,11.71 790.97,11.00 790.68,10.49 790.18,10.18 789.48,10.07"/>
    </edge>
    <edge id=":4555176634_0" function="internal">
        <lane id=":4555176634_0_0" index="0" allow="pedestrian delivery bicycle" speed="5.06" length="5.02" shape="785.69,88.90 784.33,89.09 783.36,89.67 782.77,90.64 782.56,92.01"/>
    </edge>
    <edge id=":4555176634_1" function="internal">
        <lane id=":4555176634_1_0" index="0" disallow="tram rail_urban rail rail_electric rail_fast ship container cable_car subway aircraft wheelchair scooter drone" speed="8.94" length="9.40" shape="785.69,88.90 776.29,88.83"/>
    </edge>
    <edge id=":4555176634_2" function="internal">
        <lane id=":4555176634_2_0" index="0" disallow="tram rail_urban rail rail_electric rail_fast ship container cable_car subway aircraft wheelchair scooter drone" speed="8.94" length="9.40" shape="776.31,85.63 785.71,85.70"/>
    </edge>
    <edge id=":4555176634_3" function="internal">
        <lane id=":4555176634_3_0" index="0" allow="pedestrian delivery bicycle" speed="6.86" length="3.27" shape="776.31,85.63 779.07,86.05 779.48,86.30"/>
    </edge>
    <edge id=":4555176634_7" function="internal">
        <lane id=":4555176634_7_0" index="0" allow="pedestrian delivery bicycle" speed="6.86" length="6.92" shape="779.48,86.30 781.04,87.25 782.20,89.24 782.56,92.01"/>
    </edge>
    <edge id=":4555176634_4" function="internal">
        <lane id=":4555176634_4_0" index="0" allow="pedestrian delivery bicycle" speed="5.03" length="5.01" shape="779.36,91.96 779.18,90.60 778.61,89.63 777.65,89.04 776.29,88.83"/>
    </edge>
    <edge id=":4555176634_5" function="internal">
        <lane id=":4555176634_5_0" index="0" allow="pedestrian delivery bicycle" speed="6.88" length="10.16" shape="779.36,91.96 779.78,89.21 780.99,87.24 782.96,86.08 785.71,85.70"/>
    </edge>
    <edge id=":4555176634_6" function="internal">
        <lane id=":4555176634_6_0" index="0" allow="pedestrian delivery bicycle" speed="3.65" length="4.67" shape="779.36,91.96 780.17,90.78 780.98,90.39 781.77,90.80 782.56,92.01"/>
    </edge>
    <edge id=":4555223670_0" function="internal">
        <lane id=":4555223670_0_0" index="0" allow="pedestrian delivery bicycle" speed="5.85" length="6.89" shape="792.11,246.80 791.75,248.48 790.83,249.67 789.36,250.38 787.33,250.61"/>
    </edge>
    <edge id=":4555223670_1" function="internal">
        <lane id=":4555223670_1_0" index="0" allow="pedestrian delivery bicycle" speed="3.61" length="2.00" shape="787.34,247.41 787.95,247.41 788.44,247.36 788.77,247.15 788.91,246.67"/>
    </edge>
    <edge id=":4555223670_2" function="internal">
        <lane id=":4555223670_2_0" index="0" disallow="tram rail_urban rail rail_electric rail_fast ship container cable_car subway aircraft wheelchair scooter drone" speed="3.65" length="4.67" shape="787.34,247.41 788.54,248.21 788.93,249.01 788.53,249.81 787.33,250.61"/>
    </edge>
    <edge id=":4555223671_0" function="internal">
        <lane id=":4555223671_0_0" index="0" allow="pedestrian delivery bicycle" speed="3.65" length="4.67" shape="789.53,217.73 790.36,216.55 791.17,216.16 791.96,216.58 792.73,217.79"/>
    </edge>
    <edge id=":4555223679_0" function="internal">
        <lane id=":4555223679_0_0" index="0" allow="pedestrian delivery bicycle" speed="5.56" length="3.23" shape="781.78,310.01 779.38,312.17"/>
    </edge>
    <edge id=":4555223679_1" function="internal">
        <lane id=":4555223679_1_0" index="0" allow="pedestrian delivery bicycle" speed="3.65" length="4.67" shape="781.78,310.01 780.62,310.86 779.73,310.97 779.11,310.32 778.77,308.92"/>
    </edge>
    <edge id=":4608872854_0" function="internal">
        <lane id=":4608872854_0_0" index="0" disallow="tram rail_urban rail rail_electric rail_fast ship container cable_car subway aircraft wheelchair scooter drone" speed="3.65" length="4.67" shape="1.61,376.18 0.81,377.38 0.01,377.78 -0.79,377.38 -1.59,376.18"/>
    </edge>
    <edge id=":4840594647_0" function="internal">
        <lane id=":4840594647_0_0" index="0" allow="pedestrian delivery bicycle" speed="3.65" length="4.67" shape="14.63,333.92 13.44,333.10 13.05,332.30 13.46,331.50 14.68,330.72"/>
    </edge>
    <edge id=":4840623137_0" function="internal">
        <lane id=":4840623137_0_0" index="0" allow="pedestrian delivery bicycle" speed="5.03" length="5.01" shape="7.88,18.71 6.51,18.88 5.53,19.45 4.94,20.42 4.74,21.78"/>
    </edge>
    <edge id=":4840623137_1" function="internal">
        <lane id=":4840623137_1_0" index="0" allow="pedestrian delivery bicycle" speed="6.88" length="10.17" shape="7.88,18.71 5.11,18.27 3.15,17.07 1.98,15.09 1.61,12.34"/>
    </edge>
    <edge id=":4840623137_2" function="internal">
        <lane id=":4840623137_2_0" index="0" allow="pedestrian delivery bicycle" speed="3.65" length="4.67" shape="7.88,18.71 6.69,17.89 6.30,17.09 6.72,16.29 7.93,15.51"/>
    </edge>
    <edge id=":4840623137_3" function="internal">
        <lane id=":4840623137_3_0" index="0" allow="pedestrian delivery bicycle" speed="5.07" length="5.04" shape="4.81,12.37 4.99,13.73 5.58,14.70 6.55,15.30 7.93,15.51"/>
    </edge>
    <edge id=":4840623137_4" function="internal">
        <lane id=":4840623137_4_0" index="0" disallow="tram rail_urban rail rail_electric rail_fast ship container cable_car subway aircraft wheelchair scooter drone" speed="11.18" length="9.41" shape="4.81,12.37 4.74,21.78"/>
    </edge>
    <edge id=":4840623137_5" function="internal">
        <lane id=":4840623137_5_0" index="0" disallow="tram rail_urban rail rail_electric rail_fast ship container cable_car subway aircraft wheelchair scooter drone" speed="11.18" length="9.42" shape="1.54,21.76 1.61,12.34"/>
    </edge>
    <edge id=":4840623137_6" function="internal">
        <lane id=":4840623137_6_0" index="0" allow="pedestrian delivery bicycle" speed="6.85" length="3.29" shape="1.54,21.76 1.95,18.99 2.21,18.58"/>
    </edge>
    <edge id=":4840623137_7" function="internal">
        <lane id=":4840623137_7_0" index="0" allow="pedestrian delivery bicycle" speed="6.85" length="6.93" shape="2.21,18.58 3.16,17.02 5.15,15.86 7.93,15.51"/>
    </edge>
    <edge id=":4840630574_0" function="internal">
        <lane id=":4840630574_0_0" index="0" allow="pedestrian delivery bicycle" speed="3.65" length="4.67" shape="20.75,306.24 21.58,305.06 22.39,304.68 23.18,305.09 23.95,306.31"/>
    </edge>
    <edge id=":4840630576_0" function="internal">
        <lane id=":4840630576_0_0" index="0" allow="pedestrian delivery bicycle" speed="3.65" length="4.67" shape="40.47,295.28 41.29,294.09 42.09,293.70 42.89,294.11 43.67,295.33"/>
    </edge>
    <edge id=":4840631836_0" function="internal">
        <lane id=":4840631836_0_0" index="0" allow="pedestrian delivery bicycle" speed="5.05" length="5.01" shape="5.69,195.79 4.32,195.98 3.34,196.56 2.75,197.52 2.55,198.87"/>
    </edge>
    <edge id=":4840631836_1" function="internal">
        <lane id=":4840631836_1_0" index="0" allow="pedestrian delivery bicycle" speed="6.86" length="10.18" shape="5.69,195.79 2.93,195.38 0.96,194.19 -0.21,192.21 -0.58,189.45"/>
    </edge>
    <edge id=":4840631836_2" function="internal">
        <lane id=":4840631836_2_0" index="0" allow="pedestrian delivery bicycle" speed="3.65" length="4.67" shape="5.69,195.79 4.49,194.99 4.09,194.18 4.50,193.39 5.70,192.59"/>
    </edge>
    <edge id=":4840631836_3" function="internal">
        <lane id=":4840631836_3_0" index="0" allow="pedestrian delivery bicycle" speed="5.04" length="5.00" shape="2.62,189.47 2.80,190.83 3.37,191.80 4.34,192.39 5.70,192.59"/>
    </edge>
    <edge id=":4840631836_4" function="internal">
        <lane id=":4840631836_4_0" index="0" disallow="tram rail_urban rail rail_electric rail_fast ship container cable_car subway aircraft wheelchair scooter drone" speed="11.18" length="9.40" shape="2.62,189.47 2.55,198.87"/>
    </edge>
    <edge id=":4840631836_5" function="internal">
        <lane id=":4840631836_5_0" index="0" disallow="tram rail_urban rail rail_electric rail_fast ship container cable_car subway aircraft wheelchair scooter drone" speed="11.18" length="9.41" shape="-0.65,198.85 -0.58,189.45"/>
    </edge>
    <edge id=":4840631836_6" function="internal">
        <lane id=":4840631836_6_0" index="0" allow="pedestrian delivery bicycle" speed="6.87" length="3.26" shape="-0.65,198.85 -0.24,196.11 0.01,195.69"/>
    </edge>
    <edge id=":4840631836_7" function="internal">
        <lane id=":4840631836_7_0" index="0" allow="pedestrian delivery bicycle" speed="6.87" length="6.90" shape="0.01,195.69 0.96,194.14 2.94,192.97 5.70,192.59"/>
    </edge>
    <edge id=":4840631837_0" function="internal">
        <lane id=":4840631837_0_0" index="0" allow="pedestrian delivery bicycle" speed="3.65" length="4.67" shape="24.39,192.67 25.59,193.47 25.99,194.27 25.58,195.07 24.38,195.87"/>
    </edge>
    <edge id=":4840633104_0" function="internal">
        <lane id=":4840633104_0_0" index="0" allow="pedestrian delivery bicycle" speed="5.02" length="5.02" shape="5.85,175.71 4.48,175.87 3.50,176.44 2.90,177.40 2.70,178.76"/>
    </edge>
    <edge id=":4840633104_1" function="internal">
        <lane id=":4840633104_1_0" index="0" allow="pedestrian delivery bicycle" speed="6.31" length="8.35" shape="5.85,175.71 3.08,175.40 1.11,174.63 -0.06,173.39 -0.44,171.69"/>
    </edge>
    <edge id=":4840633104_2" function="internal">
        <lane id=":4840633104_2_0" index="0" allow="pedestrian delivery bicycle" speed="3.65" length="4.67" shape="5.85,175.71 4.66,174.88 4.28,174.07 4.70,173.28 5.92,172.51"/>
    </edge>
    <edge id=":4840633104_3" function="internal">