<?xml version="1.0" encoding="UTF-8"?>

<!-- generated on 2025-01-16 13:39:45 by Eclipse SUMO polyconvert Version 1.21.0
<polyconvertConfiguration xmlns:xsi="http://www.w3.org/2001/XMLSchema-instance" xsi:noNamespaceSchemaLocation="http://sumo.dlr.de/xsd/polyconvertConfiguration.xsd">

    <input>
        <net-file value="osm.net.xml.gz"/>
        <osm-files value="osm_bbox.osm.xml.gz"/>
        <osm.keep-full-type value="true"/>
        <osm.merge-relations value="1"/>
        <type-file value="${SUMO_HOME}\data\typemap\osmPolyconvert.typ.xml"/>
    </input>

    <output>
        <output-file value="osm.poly.xml.gz"/>
    </output>

    <report>
        <verbose value="true"/>
    </report>

</polyconvertConfiguration>
-->

<additional xmlns:xsi="http://www.w3.org/2001/XMLSchema-instance" xsi:noNamespaceSchemaLocation="http://sumo.dlr.de/xsd/additional_file.xsd">
    <location netOffset="-548379.03,-5281706.87" convBoundary="-3.49,-0.00,795.61,398.35" origBoundary="-122.355369,47.686906,-122.344716,47.690464" projParameter="+proj=utm +zone=10 +ellps=WGS84 +datum=WGS84 +units=m +no_defs"/>

    <poly id="1023361529" type="landuse.grass" color="194,194,130" fill="1" layer="-3.00" shape="17.412683,128.152092 15.654569,131.093963 15.244742,134.347154 15.426279,137.783102 16.698259,140.950260 19.033899,143.459391 22.044640,145.107197 25.424193,145.724410 29.001069,145.176227 32.189748,143.480000 34.635953,140.821730 36.059432,137.510293 36.292035,133.911073 35.307821,130.435096 33.465333,127.285413 32.832266,125.801889 32.109970,123.317300 31.597889,120.823347 31.529120,118.266398 31.731342,115.611672 31.863340,113.278688 31.624015,111.376084 30.745245,109.657106 29.330238,108.344907 27.557898,107.585467 25.630104,107.469385 23.779306,108.020826 22.223780,109.163804 21.152247,110.766513 20.702745,112.474432 20.353402,114.772263 19.949215,117.347505 19.596819,120.012095 19.193650,122.465084 18.909431,124.152150 18.359136,126.248244 17.412683,128.152092"/>
    <poly id="1107033469" type="landuse.retail" color="194,194,130" fill="0" layer="-3.00" shape="9.516410,5.647037 35.404880,26.847063"/>
    <poly id="1128463660" type="building.garage" color="255,230,230" fill="1" layer="-1.00" shape="232.824583,47.455932 232.832570,42.910092 238.453605,42.934861 238.438203,47.469525 232.824583,47.455932"/>
    <poly id="1128463661" type="building.yes" color="255,230,230" fill="1" layer="-1.00" shape="233.565915,41.371281 233.750337,35.470924 237.659429,35.592526 237.475003,41.492883 233.565915,41.371281"/>
    <poly id="1128463662" type="building.garage" color="255,230,230" fill="1" layer="-1.00" shape="218.469847,42.689994 218.569979,35.199532 224.888474,35.285691 224.838832,38.530765 226.129510,38.552669 226.064001,42.797932 218.469847,42.689994"/>
    <poly id="1128463663" type="building.yes" color="255,230,230" fill="1" layer="-1.00" shape="250.161151,49.245878 250.125451,43.643777 254.823807,43.616386 254.851999,49.218425 250.161151,49.245878"/>
    <poly id="1128463664" type="building.yes" color="255,230,230" fill="1" layer="-1.00" shape="244.855124,49.245961 244.781617,43.676888 249.480252,43.616151 249.553754,49.185225 244.855124,49.245961"/>
    <poly id="1128463665" type="building.yes" color="255,230,230" fill="1" layer="-1.00" shape="277.338720,49.006430 273.316793,48.917201 273.437127,43.505355 277.459059,43.594584 277.338720,49.006430"/>
    <poly id="1128463666" type="building.yes" color="255,230,230" fill="1" layer="-1.00" shape="272.679269,43.487899 272.765712,49.301604 270.724126,49.328980 270.761471,52.041277 266.753345,52.096658 266.629549,43.570656 272.679269,43.487899"/>
    <poly id="1128463667" type="building.yes" color="255,230,230" fill="1" layer="-1.00" shape="257.591681,42.894855 257.694508,36.882668 261.859216,36.950852 261.756384,42.963038 257.591681,42.894855"/>
    <poly id="1128463668" type="building.yes" color="255,230,230" fill="1" layer="-1.00" shape="268.382117,42.207098 268.240840,35.770511 272.572135,35.662261 272.713407,42.098848 268.382117,42.207098"/>
    <poly id="1128463669" type="building.yes" color="255,230,230" fill="1" layer="-1.00" shape="273.216671,42.047486 273.151626,36.367336 277.429831,36.325333 277.494872,42.005483 273.216671,42.047486"/>
    <poly id="1131869045" type="building.garage" color="255,230,230" fill="1" layer="-1.00" shape="348.530179,44.634358 348.351655,50.712598 351.675573,50.807143 351.854101,44.728903 348.530179,44.634358"/>
    <poly id="1131869046" type="building.garage" color="255,230,230" fill="1" layer="-1.00" shape="352.815791,44.603587 352.629758,50.681764 355.953583,50.787426 356.139713,44.698135 352.815791,44.603587"/>
    <poly id="1208934835" type="building.garage" color="255,230,230" fill="1" layer="-1.00" shape="387.890421,209.684114 387.890655,205.182665 395.995539,205.217309 395.979638,209.796430 387.890421,209.684114"/>
    <poly id="1230691500" type="landuse.commercial" color="209,209,204" fill="1" layer="-3.00" shape="762.493248,239.735879 793.242638,240.340421 794.297647,239.826952 794.969940,239.310247 765.589061,177.130678 765.092262,208.381031 764.863126,221.283268 763.773569,224.108309 763.610277,230.108870 762.588856,230.200269 762.493248,239.735879"/>
    <poly id="1230691506" type="landuse.retail" color="194,194,130" fill="0" layer="-3.00" shape="788.787180,16.419228 782.851112,16.369034 780.921983,16.408297 780.808494,47.584081 781.498905,47.589918 793.093312,47.687962"/>
    <poly id="1230699569" type="landuse.retail" color="194,194,130" fill="1" layer="-3.00" shape="764.071060,159.612186 774.436320,159.488627 784.680506,97.355122 780.830746,97.322570 765.678973,97.238939 764.141791,97.081455 763.595874,134.144380 764.406157,134.173458 764.071060,159.612186"/>
    <poly id="1267615100" type="building.yes" color="255,230,230" fill="1" layer="-1.00" shape="458.143083,49.710912 457.853989,70.726371 468.097080,70.867990 468.183529,65.044616 466.562662,65.019884 466.636936,59.752143 468.017662,59.774857 468.153573,49.850577 458.143083,49.710912"/>
    <poly id="1267615107" type="building.yes" color="255,230,230" fill="1" layer="-1.00" shape="283.816125,286.548249 287.335854,286.544367 287.343077,291.957283 283.823351,291.961165 283.816125,286.548249"/>
    <poly id="1267615108" type="building.yes" color="255,230,230" fill="1" layer="-1.00" shape="280.296396,286.552134 283.816125,286.548249 283.823351,291.961165 280.303626,291.965050 280.296396,286.552134"/>
    <poly id="1267615109" type="building.yes" color="255,230,230" fill="1" layer="-1.00" shape="276.776574,286.567134 280.296396,286.552134 280.303626,291.965050 276.783807,291.980051 276.776574,286.567134"/>
    <poly id="1267615110" type="building.yes" color="255,230,230" fill="1" layer="-1.00" shape="366.921384,371.771714 366.796955,377.661460 373.009648,377.791357 373.134084,371.901611 366.921384,371.771714"/>
    <poly id="1267615111" type="building.house" color="255,230,230" fill="1" layer="-1.00" shape="318.057000,356.790842 318.004961,363.003521 324.443444,363.057454 324.495490,356.844775 318.057000,356.790842"/>
    <poly id="1267615112" type="building.house" color="255,230,230" fill="1" layer="-1.00" shape="325.854207,363.069273 333.500844,363.133338 333.614080,349.618817 325.967426,349.554751 325.854207,363.069273"/>
    <poly id="1267615115" type="building.yes" color="255,230,230" fill="1" layer="-1.00" shape="273.256845,286.571023 276.776574,286.567134 276.783807,291.980051 273.264081,291.983939 273.256845,286.571023"/>
    <poly id="1267615116" type="building.yes" color="255,230,230" fill="1" layer="-1.00" shape="294.213202,198.329048 294.056131,204.540846 297.875243,204.639508 297.694693,211.862546 289.448634,211.660137 289.786333,198.214186 294.213202,198.329048"/>
    <poly id="1267615118" type="building.yes" color="255,230,230" fill="1" layer="-1.00" shape="276.972373,124.172011 269.324493,124.219161 269.289864,117.594516 276.937660,117.558480 276.972373,124.172011"/>
    <poly id="1267615119" type="building.yes" color="255,230,230" fill="1" layer="-1.00" shape="575.919217,125.447712 568.676192,125.542336 568.599236,119.528636 575.842269,119.434011 575.919217,125.447712"/>
    <poly id="1267615123" type="building.yes" color="255,230,230" fill="1" layer="-1.00" shape="59.950135,283.111600 67.595577,283.330910 67.409752,289.420210 59.764317,289.200900 59.950135,283.111600"/>
    <poly id="1267615125" type="building.yes" color="255,230,230" fill="1" layer="-1.00" shape="177.062994,197.471744 176.877703,203.483244 169.554840,203.266486 169.740124,197.254986 177.062994,197.471744"/>
    <poly id="1267615127" type="building.yes" color="255,230,230" fill="1" layer="-1.00" shape="173.475485,210.079185 168.449119,209.859378 168.697578,204.370796 173.716445,204.590541 173.475485,210.079185"/>
    <poly id="1267615133" type="building.yes" color="255,230,230" fill="1" layer="-1.00" shape="146.111966,122.089167 141.279988,121.948809 141.493700,114.325918 146.325685,114.466276 146.111966,122.089167"/>
    <poly id="1267615134" type="building.yes" color="255,230,230" fill="1" layer="-1.00" shape="225.193339,283.401453 217.545855,283.426442 217.518511,275.923797 225.166098,275.887694 225.193339,283.401453"/>
    <poly id="1267615136" type="building.yes" color="255,230,230" fill="1" layer="-1.00" shape="95.146261,203.101333 95.216107,209.126075 86.239627,209.217961 86.169680,203.204332 95.146261,203.101333"/>
    <poly id="1267615137" type="building.yes" color="255,230,230" fill="1" layer="-1.00" shape="87.282223,34.626068 96.535619,34.658750 96.521345,40.871739 87.260362,40.850109 87.282223,34.626068"/>
    <poly id="1267615140" type="building.yes" color="255,230,230" fill="1" layer="-1.00" shape="87.792084,196.737995 93.706377,196.676154 93.777336,202.567529 87.855452,202.640422 87.792084,196.737995"/>
    <poly id="1267615141" type="building.yes" color="255,230,230" fill="1" layer="-1.00" shape="136.716649,114.797330 140.334780,114.705261 140.508243,121.797878 136.890117,121.889947 136.716649,114.797330"/>
    <poly id="1267615143" type="building.yes" color="255,230,230" fill="1" layer="-1.00" shape="70.709522,208.643936 62.258341,208.740236 62.198103,204.260516 70.649383,204.153102 70.709522,208.643936"/>
    <poly id="1267615144" type="building.yes" color="255,230,230" fill="1" layer="-1.00" shape="139.470431,202.993121 133.233645,203.029996 133.199691,197.205616 139.436483,197.168742 139.470431,202.993121"/>
    <poly id="1267615151" type="building.yes" color="255,230,230" fill="1" layer="-1.00" shape="494.799781,44.972853 494.908676,39.160783 500.333854,39.273077 500.225047,45.074033 494.799781,44.972853"/>
    <poly id="1267615155" type="building.yes" color="255,230,230" fill="1" layer="-1.00" shape="574.217353,127.022784 574.271527,133.958813 565.812994,134.020977 565.766314,127.085012 574.217353,127.022784"/>
    <poly id="1267615157" type="building.yes" color="255,230,230" fill="1" layer="-1.00" shape="139.601571,207.962481 146.356238,207.918821 146.412673,215.543968 139.658014,215.587628 139.601571,207.962481"/>
    <poly id="1298896069" type="building.house" color="255,230,230" fill="1" layer="-1.00" shape="324.516159,354.377486 324.556659,349.542933 318.118162,349.488999 318.077666,354.323552 324.516159,354.377486"/>
    <poly id="219346500" type="building.house" color="255,230,230" fill="1" layer="-1.00" shape="32.589533,174.782279 32.695073,186.442461 37.325864,186.403220 37.313069,185.236071 47.115056,185.150985 47.033650,176.002921 43.055817,176.036479 43.044504,174.691508 32.589533,174.782279"/>
    <poly id="219346501" type="building.house" color="255,230,230" fill="1" layer="-1.00" shape="45.946574,28.991066 46.500785,15.613605 41.819270,15.419011 41.753966,16.952293 37.290082,16.759515 36.793690,28.603632 45.946574,28.991066"/>
    <poly id="219346502" type="building.house" color="255,230,230" fill="1" layer="-1.00" shape="54.746050,146.579906 55.169349,130.000323 54.494050,129.983583 54.560462,127.416644 48.835468,127.268924 48.767762,129.991458 45.436290,129.908137 45.266149,136.820053 46.774338,136.854844 46.538528,146.244788 49.134658,146.310870 49.102888,147.422074 51.646487,147.487720 51.677147,146.509883 54.746050,146.579906"/>
    <poly id="219346503" type="building.yes" color="255,230,230" fill="0" layer="-1.00" shape="69.781898,368.587670 54.547936,368.549655"/>
    <poly id="219346504" type="building.house" color="255,230,230" fill="1" layer="-1.00" shape="49.795171,15.652158 49.775807,28.789551 58.046216,28.802870 58.065598,15.665477 49.795171,15.652158"/>
    <poly id="219346505" type="building.house" color="255,230,230" fill="1" layer="-1.00" shape="51.589505,176.852241 51.316411,196.122830 51.856719,196.127331 51.851719,196.727482 56.414039,196.798832 56.419964,196.087542 57.042819,196.092731 57.315006,176.933281 51.589505,176.852241"/>
    <poly id="219346506" type="building.house" color="255,230,230" fill="1" layer="-1.00" shape="45.955136,95.545857 46.026663,108.583976 50.199564,108.563159 50.183889,105.939963 54.627043,105.910286 54.607095,101.097462 55.950567,101.086424 55.932946,97.796331 54.551951,97.807056 54.540820,95.539568 53.234869,95.550919 53.224663,93.172291 48.879149,93.191669 48.889727,95.525840 45.955136,95.545857"/>
    <poly id="219346507" type="building.house" color="255,230,230" fill="1" layer="-1.00" shape="59.601955,215.009016 59.557450,227.557126 61.936384,227.565832 61.932406,228.944019 65.354428,228.961417 65.357388,227.705483 68.621914,227.710456 68.661533,216.651673 66.515226,216.644903 66.519761,215.200032 64.260890,215.192325 64.264772,212.924961 60.670051,212.917240 60.660147,215.006718 59.601955,215.009016"/>
    <poly id="219346508" type="building.detached" color="255,230,230" fill="1" layer="-1.00" shape="67.613053,29.949585 67.928463,15.514240 66.592846,15.480882 66.617023,14.380730 63.923275,14.313828 63.889002,15.725107 59.386854,15.620910 59.082118,29.678445 61.580834,29.732606 61.548228,30.943834 66.883362,31.054973 66.907724,29.932593 67.613053,29.949585"/>
    <poly id="219346509" type="building.house" color="255,230,230" fill="1" layer="-1.00" shape="61.902929,98.268425 61.758560,112.894146 67.214152,112.950716 67.227394,111.361427 70.026529,111.384751 70.168047,97.103561 64.997608,97.049364 64.987237,98.294122 61.902929,98.268425"/>
    <poly id="219346510" type="building.house" color="255,230,230" fill="1" layer="-1.00" shape="58.736378,177.478628 58.505954,193.426281 63.323421,193.499762 63.306749,194.599977 65.302794,194.627723 65.320299,193.427483 67.068703,193.453166 67.276644,179.305904 62.294071,179.231044 62.315743,177.530678 58.736378,177.478628"/>
    <poly id="219346511" type="building.house" color="255,230,230" fill="1" layer="-1.00" shape="59.700617,255.411722 59.545234,272.260292 65.315851,272.319488 65.364102,267.429428 68.118137,267.452376 68.224550,255.582778 65.478015,255.559892 65.499410,253.892867 61.919908,253.863042 61.906851,255.430104 59.700617,255.411722"/>
    <poly id="219346512" type="building.house" color="255,230,230" fill="1" layer="-1.00" shape="60.473606,337.377865 60.643667,352.995419 64.418770,352.960186 64.407648,351.592986 69.211088,351.532981 69.052171,337.282627 60.473606,337.377865"/>
    <poly id="219346513" type="building.house" color="255,230,230" fill="1" layer="-1.00" shape="64.130048,311.055407 64.314633,295.207401 59.534678,295.145345 59.538475,294.689674 56.019216,294.638125 55.852898,309.196979 57.608771,309.222722 57.586637,310.978659 64.130048,311.055407"/>
    <poly id="219346514" type="building.house" color="255,230,230" fill="1" layer="-1.00" shape="61.876216,132.101300 61.618979,141.357689 62.646889,141.388482 62.507108,146.455614 65.530893,146.536381 65.498656,147.703155 69.205149,147.811842 69.237942,146.578385 72.111640,146.657905 72.261990,141.224078 71.624213,141.207648 71.804208,134.918236 68.622918,134.825039 68.643947,134.102759 68.006169,134.086330 68.078703,131.686163 69.129128,131.717145 69.202310,129.239180 64.925566,129.114627 64.839881,132.192681 61.876216,132.101300"/>
    <poly id="219346515" type="building.house" color="255,230,230" fill="1" layer="-1.00" shape="71.806171,212.131971 71.768132,227.503265 72.338546,227.496904 72.333084,229.052915 76.085384,229.061957 76.090014,227.605971 80.540301,227.609719 80.578457,212.227311 79.137548,212.226416 79.142084,209.881255 75.502335,209.873149 75.498449,212.140513 71.806171,212.131971"/>
    <poly id="219346516" type="building.detached" color="255,230,230" fill="1" layer="-1.00" shape="80.213735,29.976788 80.573462,15.630731 78.404938,15.579313 78.431432,14.201314 74.379554,14.100858 74.335551,15.778809 72.009432,15.726080 71.651023,29.916544 76.895918,30.049169 76.875352,30.715878 79.441516,30.781724 79.463379,29.959420 80.213735,29.976788"/>
    <poly id="219346517" type="building.house" color="255,230,230" fill="1" layer="-1.00" shape="79.401467,190.466061 79.495210,179.218780 77.491563,179.202080 77.502308,177.912866 73.067269,177.875905 73.055414,179.298486 70.106319,179.262795 70.006942,190.287735 75.455049,190.333137 75.440970,192.022452 78.667810,192.049346 78.681056,190.460056 79.401467,190.466061"/>
    <poly id="219346518" type="building.house" color="255,230,230" fill="1" layer="-1.00" shape="71.999254,255.603119 71.568580,268.559255 76.467790,268.722346 76.488448,268.044522 79.812152,268.150027 80.231171,255.693956 77.267662,255.591453 77.308239,254.324717 74.082082,254.220026 74.039932,255.675699 71.999254,255.603119"/>
    <poly id="219346520" type="building.detached" color="255,230,230" fill="1" layer="-1.00" shape="65.557546,296.451487 65.423258,310.766086 68.987717,310.795788 68.979475,311.784927 70.885429,311.811925 70.895339,310.622736 74.046979,310.660116 74.181103,296.367745 69.828792,296.320359 69.837591,295.264537 66.085611,295.222157 66.075332,296.455802 65.557546,296.451487"/>
    <poly id="219346521" type="building.house" color="255,230,230" fill="1" layer="-1.00" shape="86.398496,110.932122 86.543946,97.984727 77.051066,97.883375 77.010495,101.850979 75.539634,101.838721 75.500175,105.672958 76.978539,105.685279 76.920646,110.830895 86.398496,110.932122"/>
    <poly id="219346522" type="building.house" color="255,230,230" fill="1" layer="-1.00" shape="81.866289,179.271887 81.782362,190.241382 91.035139,190.318513 91.125476,179.482447 87.530827,179.463595 87.537497,178.663393 84.400702,178.637245 84.395329,179.281852 81.866289,179.271887"/>
    <poly id="219346523" type="building.house" color="255,230,230" fill="1" layer="-1.00" shape="81.931261,212.894353 81.778129,227.664495 84.089432,227.683761 84.069236,229.206305 87.251030,229.232828 87.270764,227.765854 90.887803,227.796007 91.001488,216.860103 86.153838,216.808577 86.193582,212.940997 81.931261,212.894353"/>
    <poly id="219346524" type="building.house" color="255,230,230" fill="1" layer="-1.00" shape="75.127179,295.408652 74.980081,308.556102 77.734004,308.590169 77.724833,309.690446 80.681366,309.726204 80.698134,308.614875 83.819758,308.652010 83.974380,295.504623 75.127179,295.408652"/>
    <poly id="219346525" type="building.detached" color="255,230,230" fill="1" layer="-1.00" shape="92.849994,30.237723 93.027976,16.090216 90.484042,16.057894 90.510910,13.735149 86.758841,13.681643 86.730492,16.182210 84.186558,16.149891 84.009060,30.241829 85.314748,30.263827 85.295571,31.664118 91.704216,31.739769 91.716909,30.217163 92.849994,30.237723"/>
    <poly id="219346526" type="building.house" color="255,230,230" fill="1" layer="-1.00" shape="89.858670,69.469849 89.969477,54.377032 83.140422,54.320108 83.128472,55.753803 81.154801,55.737352 81.048369,69.407526 89.858670,69.469849"/>
    <poly id="219346527" type="building.house" color="255,230,230" fill="1" layer="-1.00" shape="82.143438,129.813847 81.937966,146.361901 87.018217,146.426476 87.008211,147.626779 89.919800,147.662165 90.094166,133.047808 85.591739,132.988046 85.625368,129.853985 82.143438,129.813847"/>
    <poly id="219346528" type="building.detached" color="255,230,230" fill="1" layer="-1.00" shape="95.271453,16.153378 95.121076,27.889230 103.210638,27.990022 103.236584,25.778416 104.527264,25.800293 104.597042,20.132386 103.178691,20.120560 103.225209,16.341955 101.229103,16.314196 101.250693,14.624945 97.415983,14.581857 97.395135,16.182198 95.271453,16.153378"/>
    <poly id="219346529" type="building.detached" color="255,230,230" fill="1" layer="-1.00" shape="102.973429,190.540313 103.155601,179.493833 100.596822,179.450267 100.615076,178.161116 96.998191,178.108729 96.971599,179.497843 94.225213,179.452716 94.043892,190.399170 98.065908,190.466048 98.029957,192.977667 102.457202,193.047927 102.500660,190.536370 102.973429,190.540313"/>
    <poly id="219346530" type="building.house" color="255,230,230" fill="1" layer="-1.00" shape="91.751967,253.767120 91.614464,270.260170 95.936870,270.296208 95.946785,269.107019 100.606880,269.145876 100.722815,255.242368 95.342306,255.197505 95.353982,253.797151 91.751967,253.767120"/>
    <poly id="219346531" type="building.house" color="255,230,230" fill="1" layer="-1.00" shape="92.868739,132.415172 92.555491,146.583784 95.166722,146.638898 95.132626,148.027950 100.812759,148.153112 100.848061,146.619580 101.906079,146.639517 102.210920,132.581982 101.077947,132.550305 101.125850,130.405570 95.708353,130.282597 95.660081,132.471788 92.868739,132.415172"/>
    <poly id="219346532" type="building.house" color="255,230,230" fill="1" layer="-1.00" shape="102.661387,227.960861 102.925179,217.026209 102.212368,217.009150 102.306136,212.964186 98.344447,212.864464 98.266990,215.853669 95.963464,215.801118 95.940857,216.712334 93.749895,216.660723 93.601192,222.794790 93.060979,222.779172 92.979911,226.201819 93.580157,226.217938 93.544765,227.762585 98.144303,227.867622 98.110484,229.223332 101.441899,229.306684 101.475811,227.939860 102.661387,227.960861"/>
    <poly id="219346533" type="building.detached" color="255,230,230" fill="1" layer="-1.00" shape="95.230015,309.169493 95.526697,289.787950 88.180596,289.671131 88.004287,300.917726 84.567578,300.866847 84.447233,309.001796 95.230015,309.169493"/>
    <poly id="219346534" type="building.house" color="255,230,230" fill="1" layer="-1.00" shape="110.751502,351.234650 111.183007,337.289314 108.031845,337.196344 107.979587,338.963144 103.478060,338.814456 103.107076,350.904144 107.533645,351.041092 107.504830,351.796651 109.087911,351.843198 109.108481,351.176488 110.751502,351.234650"/>
    <poly id="219346535" type="building.house" color="255,230,230" fill="1" layer="-1.00" shape="93.582084,55.852058 93.357960,70.132558 102.280178,70.273636 102.503396,56.104275 99.989590,56.061085 100.019425,54.282984 94.909262,54.195920 94.887766,55.874058 93.582084,55.852058"/>
    <poly id="219346536" type="building.house" color="255,230,230" fill="1" layer="-1.00" shape="112.943575,227.879891 113.284472,215.801069 105.016181,215.565392 104.918244,219.210193 104.430561,219.195011 104.356066,221.828571 104.948808,221.844629 104.788328,227.589584 108.037105,227.683365 107.996151,228.994556 111.267439,229.088527 111.300426,227.832842 112.943575,227.879891"/>
    <poly id="219346537" type="building.detached" color="255,230,230" fill="1" layer="-1.00" shape="118.137898,28.914768 118.668190,14.825772 112.891111,14.610867 112.824212,16.333086 109.620530,16.217450 109.206357,27.184189 109.791522,27.211298 109.714340,29.266871 113.360594,29.408427 113.388762,28.730666 118.137898,28.914768"/>
    <poly id="219346538" type="building.house" color="255,230,230" fill="1" layer="-1.00" shape="100.436786,111.338140 100.659538,97.224347 94.386229,97.127584 94.373351,97.772129 91.244202,97.723812 91.227617,98.812913 90.552221,98.807283 90.520258,100.841003 89.912494,100.824822 89.787883,108.570718 91.086049,108.592655 91.041577,111.226465 93.112694,111.254846 93.124183,110.777010 98.647038,110.867515 98.643424,111.300957 100.436786,111.338140"/>
    <poly id="219346539" type="building.house" color="255,230,230" fill="1" layer="-1.00" shape="113.689161,269.855171 113.857189,256.907961 107.921557,256.836226 107.901169,258.380998 105.687525,258.351422 105.630071,262.541181 104.301922,262.518990 104.172650,272.621163 109.020161,272.683819 109.059269,269.794326 113.689161,269.855171"/>
    <poly id="219346540" type="building.house" color="255,230,230" fill="1" layer="-1.00" shape="106.975307,146.226087 117.128026,146.388566 117.215514,140.398480 114.003840,140.349462 114.089193,134.614996 113.593906,134.610865 113.629956,132.088132 107.904411,132.007037 107.866138,134.796504 107.528443,134.793688 107.447452,140.005800 107.064731,140.002609 106.975307,146.226087"/>
    <poly id="219346541" type="building.detached" color="255,230,230" fill="1" layer="-1.00" shape="99.094575,298.409353 99.071398,304.788991 102.283259,304.804659 102.271203,308.950338 108.522419,308.969126 108.525759,307.668735 110.784595,307.676459 110.816414,298.462648 99.094575,298.409353"/>
    <poly id="219346542" type="building.house" color="255,230,230" fill="1" layer="-1.00" shape="104.993196,95.026432 104.906167,107.262974 114.174178,107.329152 114.223403,100.527375 112.917638,100.516485 112.955461,95.081719 104.993196,95.026432"/>
    <poly id="219346543" type="building.house" color="255,230,230" fill="1" layer="-1.00" shape="104.918375,177.796871 105.030897,191.302154 113.661930,191.240759 113.564335,179.547295 111.672975,179.564864 111.660659,178.342146 110.354726,178.353484 110.352227,177.753270 104.918375,177.796871"/>
    <poly id="219346544" type="building.detached" color="255,230,230" fill="1" layer="-1.00" shape="120.481317,351.671480 120.545510,338.578911 116.373144,338.555221 116.378990,336.954754 112.979544,336.937514 112.973884,338.515752 112.411078,338.511058 112.346625,351.636969 120.481317,351.671480"/>
    <poly id="219346545" type="building.house" color="255,230,230" fill="1" layer="-1.00" shape="107.101505,52.797097 106.915051,68.856261 116.723165,68.960290 116.792769,63.314611 118.143569,63.325878 118.192600,59.247197 116.804369,59.224504 116.879536,52.911990 107.101505,52.797097"/>
    <poly id="219346546" type="building.house" color="255,230,230" fill="1" layer="-1.00" shape="117.158981,215.555519 117.079890,227.736557 119.706371,227.758466 119.697842,228.780946 122.129305,228.790114 122.137000,227.867660 125.393837,227.894830 125.427785,222.026558 126.118175,222.032317 126.135242,219.087068 125.309683,219.091295 125.331200,215.612577 117.158981,215.555519"/>
    <poly id="219346547" type="building.house" color="255,230,230" fill="1" layer="-1.00" shape="117.519655,179.513598 117.406565,191.271993 118.172002,191.278378 118.157730,192.089631 122.074963,192.122307 122.069122,192.822484 125.385920,192.861269 125.397510,191.472029 126.200468,191.478728 126.313668,179.709219 124.640210,179.695258 124.664404,177.694816 118.998660,177.647553 118.982992,179.525804 117.519655,179.513598"/>
    <poly id="219346548" type="building.house" color="255,230,230" fill="1" layer="-1.00" shape="117.045550,256.145412 117.192515,267.316900 118.333428,267.293073 118.360932,269.393978 122.016115,269.346667 121.988521,267.256875 125.418488,267.218802 125.294781,257.759170 123.020639,257.784656 122.997397,256.072801 117.045550,256.145412"/>
    <poly id="219346549" type="building.detached" color="255,230,230" fill="1" layer="-1.00" shape="125.218552,308.274794 125.291617,299.517029 119.033164,299.464819 119.049018,297.564339 115.492055,297.534669 115.482501,299.579692 116.690760,299.578655 116.667764,303.235196 116.022409,303.229813 116.010728,304.630166 116.791158,304.636676 116.760472,308.315382 120.092305,308.343176 120.083034,309.454567 122.371792,309.473661 122.374487,308.251067 125.218552,308.274794"/>
    <poly id="219346550" type="building.detached" color="255,230,230" fill="1" layer="-1.00" shape="132.937585,28.938198 133.437517,15.793698 131.284280,15.709044 131.351184,13.986826 126.549504,13.802276 126.481953,15.602291 124.291193,15.517328 123.839651,27.361814 128.026137,27.519000 127.978415,28.741218 132.937585,28.938198"/>
    <poly id="219346551" type="building.house" color="255,230,230" fill="1" layer="-1.00" shape="126.638984,254.058079 126.996181,272.411409 134.246976,272.260729 134.183542,269.070284 134.979170,269.054694 134.957036,268.109761 136.308067,268.087690 136.166200,260.806385 134.875201,260.828957 134.780653,255.971049 132.348737,256.017444 132.313456,253.949818 126.638984,254.058079"/>
    <poly id="219346552" type="building.house" color="255,230,230" fill="1" layer="-1.00" shape="121.251636,338.495885 121.105175,351.554423 129.599599,351.647522 129.745987,338.600097 126.969567,338.565818 126.990238,336.987704 121.985102,336.934832 121.972029,338.501894 121.251636,338.495885"/>
    <poly id="219346553" type="building.house" color="255,230,230" fill="1" layer="-1.00" shape="129.636187,66.622779 129.790640,51.708160 120.725346,51.621421 120.570452,66.591609 123.339591,66.614708 123.324850,68.381820 126.791807,68.421857 126.807106,66.588062 129.636187,66.622779"/>
    <poly id="219346554" type="building.detached" color="255,230,230" fill="1" layer="-1.00" shape="131.551084,146.542232 131.620472,134.627867 123.418030,134.581664 123.382880,140.594416 122.032006,140.594262 122.007519,145.328914 125.474616,145.346723 125.464881,146.513683 131.551084,146.542232"/>
    <poly id="219346555" type="building.house" color="255,230,230" fill="1" layer="-1.00" shape="128.032000,107.778190 141.975058,107.905647 142.069375,97.503087 135.315415,97.446728 135.323668,96.457590 128.134544,96.386493 128.032000,107.778190"/>
    <poly id="219346556" type="building.house" color="255,230,230" fill="1" layer="-1.00" shape="128.270898,179.892268 128.325358,194.953124 132.640780,194.933556 132.628753,192.777206 134.925247,192.774139 134.921275,191.451458 136.422316,191.441754 136.376370,179.859867 128.270898,179.892268"/>